
 OpenBabel01102121323D

 19 19  0  0  1  0  0  0  0  0999 V2000
   -4.1880   -0.0450    0.6700 C   0  0  0  0  0  0  0  0  0  0  0  0
   -3.1420    1.0680    0.6050 C   0  0  1  0  0  0  0  0  0  0  0  0
   -1.8870    0.4520    0.3540 O   0  0  0  0  0  0  0  0  0  0  0  0
   -2.1560   -0.9040    0.0380 C   0  0  0  0  0  0  0  0  0  0  0  0
   -3.6240   -0.9890   -0.3480 C   0  0  1  0  0  0  0  0  0  0  0  0
   -1.9570   -1.5040    0.9560 H   0  0  0  0  0  0  0  0  0  0  0  0
   -1.5090   -1.2740   -0.7850 H   0  0  0  0  0  0  0  0  0  0  0  0
   -5.2410    0.2760    0.5180 H   0  0  0  0  0  0  0  0  0  0  0  0
   -4.1120   -0.5300    1.6720 H   0  0  0  0  0  0  0  0  0  0  0  0
   -3.4310    2.0940   -0.5000 C   0  0  0  0  0  0  0  0  0  0  0  0
   -3.1360    1.6130    1.5740 H   0  0  0  0  0  0  0  0  0  0  0  0
   -3.4340    1.6350   -1.5090 H   0  0  0  0  0  0  0  0  0  0  0  0
   -2.6470    2.8810   -0.4860 H   0  0  0  0  0  0  0  0  0  0  0  0
   -4.4150    2.5770   -0.3220 H   0  0  0  0  0  0  0  0  0  0  0  0
   -4.2090   -2.4000   -0.3080 C   0  0  0  0  0  0  0  0  0  0  0  0
   -3.7640   -0.5650   -1.3670 H   0  0  0  0  0  0  0  0  0  0  0  0
   -4.0820   -2.8530    0.6990 H   0  0  0  0  0  0  0  0  0  0  0  0
   -3.6960   -3.0410   -1.0560 H   0  0  0  0  0  0  0  0  0  0  0  0
   -5.2920   -2.3660   -0.5510 H   0  0  0  0  0  0  0  0  0  0  0  0
  1  2  1  0  0  0  0
  1  5  1  0  0  0  0
  1  8  1  0  0  0  0
  1  9  1  0  0  0  0
  2  3  1  0  0  0  0
  2 10  1  0  0  0  0
  2 11  1  1  0  0  0
  3  4  1  0  0  0  0
  4  5  1  0  0  0  0
  4  6  1  0  0  0  0
  4  7  1  0  0  0  0
  5 15  1  0  0  0  0
  5 16  1  6  0  0  0
 10 12  1  0  0  0  0
 10 13  1  0  0  0  0
 10 14  1  0  0  0  0
 15 17  1  0  0  0  0
 15 18  1  0  0  0  0
 15 19  1  0  0  0  0
M  END
