
 OpenBabel01102121253D

 18 17  0  0  0  0  0  0  0  0999 V2000
   -4.5325   -0.2174   -0.0412 C   0  0  0  0  0  0  0  0  0  0  0  0
   -3.3168    0.6835    0.1145 C   0  0  0  0  0  0  0  0  0  0  0  0
   -5.4596    0.3751    0.1113 H   0  0  0  0  0  0  0  0  0  0  0  0
   -4.5008   -1.0347    0.7103 H   0  0  0  0  0  0  0  0  0  0  0  0
   -4.5519   -0.6595   -1.0599 H   0  0  0  0  0  0  0  0  0  0  0  0
   -2.1450   -0.0818   -0.0725 O   0  0  0  0  0  0  0  0  0  0  0  0
   -3.3423    1.1154    1.1408 H   0  0  0  0  0  0  0  0  0  0  0  0
   -3.3944    1.4905   -0.6500 H   0  0  0  0  0  0  0  0  0  0  0  0
   -1.0182    0.7657   -0.0065 C   0  0  0  0  0  0  0  0  0  0  0  0
    0.2505   -0.0841   -0.0744 C   0  0  0  0  0  0  0  0  0  0  0  0
   -1.0008    1.3291    0.9557 H   0  0  0  0  0  0  0  0  0  0  0  0
   -1.0163    1.4706   -0.8695 H   0  0  0  0  0  0  0  0  0  0  0  0
    1.5031    0.7862   -0.0085 C   0  0  0  0  0  0  0  0  0  0  0  0
    0.2594   -0.6618   -1.0243 H   0  0  0  0  0  0  0  0  0  0  0  0
    0.2612   -0.7992    0.7768 H   0  0  0  0  0  0  0  0  0  0  0  0
    1.5254    1.4962   -0.8627 H   0  0  0  0  0  0  0  0  0  0  0  0
    2.4074    0.1439   -0.0565 H   0  0  0  0  0  0  0  0  0  0  0  0
    1.5251    1.3600    0.9426 H   0  0  0  0  0  0  0  0  0  0  0  0
  1  2  1  0  0  0  0
  1  3  1  0  0  0  0
  1  4  1  0  0  0  0
  1  5  1  0  0  0  0
  2  6  1  0  0  0  0
  2  7  1  0  0  0  0
  2  8  1  0  0  0  0
  6  9  1  0  0  0  0
  9 10  1  0  0  0  0
  9 11  1  0  0  0  0
  9 12  1  0  0  0  0
 10 13  1  0  0  0  0
 10 14  1  0  0  0  0
 10 15  1  0  0  0  0
 13 16  1  0  0  0  0
 13 17  1  0  0  0  0
 13 18  1  0  0  0  0
M  END
