
 OpenBabel04151907273D

 49 53  0  0  1  0  0  0  0  0999 V2000
    0.7639    1.4789    1.2672 H   0  0  0  0  0  0  0  0  0  0  0  0
  -11.3252    2.4544    2.6179 Si  0  0  0  0  0  0  0  0  0  0  0  0
   -1.3438    1.4266    0.7559 C   0  0  1  0  0  0  0  0  0  0  0  0
   -2.2129    0.7416   -0.3253 C   0  0  2  0  0  0  0  0  0  0  0  0
   -1.9180    1.6583   -1.6259 C   0  0  2  0  0  0  0  0  0  0  0  0
   -0.9398    2.7124   -1.0455 C   0  0  2  0  0  0  0  0  0  0  0  0
    0.4066    2.0079   -0.8077 C   0  0  0  0  0  0  0  0  0  0  0  0
    0.1273    1.1188    0.4272 C   0  0  0  0  0  0  0  0  0  0  0  0
   -3.6000    1.2595   -0.4772 C   0  0  0  0  0  0  0  0  0  0  0  0
   -3.3666    1.9837   -1.5222 C   0  0  0  0  0  0  0  0  0  0  0  0
   -4.8326    1.1981    0.1583 C   0  0  0  0  0  0  0  0  0  0  0  0
   -5.8987    1.9886   -0.3753 C   0  0  0  0  0  0  0  0  0  0  0  0
   -5.6155    2.7639   -1.5535 C   0  0  0  0  0  0  0  0  0  0  0  0
   -4.3309    2.7635   -2.1369 C   0  0  0  0  0  0  0  0  0  0  0  0
   -1.4001    2.9170    0.4040 C   0  0  0  0  0  0  0  0  0  0  0  0
   -7.2462    2.0523    0.3131 C   0  0  0  0  0  0  0  0  0  0  0  0
   -8.2538    2.9547   -0.1094 C   0  0  0  0  0  0  0  0  0  0  0  0
   -9.4700    3.0588    0.5735 C   0  0  0  0  0  0  0  0  0  0  0  0
   -9.7238    2.2673    1.6951 C   0  0  0  0  0  0  0  0  0  0  0  0
   -8.7558    1.3539    2.1172 C   0  0  0  0  0  0  0  0  0  0  0  0
   -7.5378    1.2466    1.4409 C   0  0  0  0  0  0  0  0  0  0  0  0
  -11.4750    4.2073    3.2484 C   0  0  0  0  0  0  0  0  0  0  0  0
  -12.7584    2.0921    1.4799 C   0  0  0  0  0  0  0  0  0  0  0  0
  -11.4061    1.2980    4.0845 C   0  0  0  0  0  0  0  0  0  0  0  0
   -1.6423    1.1326    1.7845 H   0  0  0  0  0  0  0  0  0  0  0  0
   -2.1433   -0.3624   -0.4388 H   0  0  0  0  0  0  0  0  0  0  0  0
   -1.6455    1.1478   -2.5752 H   0  0  0  0  0  0  0  0  0  0  0  0
   -0.8619    3.6166   -1.6855 H   0  0  0  0  0  0  0  0  0  0  0  0
   -4.9075    0.5888    1.0422 H   0  0  0  0  0  0  0  0  0  0  0  0
   -6.3511    3.3892   -2.0288 H   0  0  0  0  0  0  0  0  0  0  0  0
   -4.0995    3.3629   -3.0075 H   0  0  0  0  0  0  0  0  0  0  0  0
   -0.7060    3.5432    1.0108 H   0  0  0  0  0  0  0  0  0  0  0  0
   -2.4150    3.3619    0.4960 H   0  0  0  0  0  0  0  0  0  0  0  0
   -8.1256    3.6139   -0.9504 H   0  0  0  0  0  0  0  0  0  0  0  0
  -10.2086    3.7733    0.2309 H   0  0  0  0  0  0  0  0  0  0  0  0
   -8.9279    0.7268    2.9815 H   0  0  0  0  0  0  0  0  0  0  0  0
   -6.8398    0.5289    1.8357 H   0  0  0  0  0  0  0  0  0  0  0  0
  -11.4546    4.9155    2.3951 H   0  0  0  0  0  0  0  0  0  0  0  0
  -10.6307    4.4284    3.9333 H   0  0  0  0  0  0  0  0  0  0  0  0
  -12.4326    4.3198    3.7975 H   0  0  0  0  0  0  0  0  0  0  0  0
  -12.7386    2.7966    0.6233 H   0  0  0  0  0  0  0  0  0  0  0  0
  -13.7090    2.2171    2.0382 H   0  0  0  0  0  0  0  0  0  0  0  0
  -12.6808    1.0504    1.1079 H   0  0  0  0  0  0  0  0  0  0  0  0
  -10.5695    1.5208    4.7785 H   0  0  0  0  0  0  0  0  0  0  0  0
  -11.3321    0.2478    3.7356 H   0  0  0  0  0  0  0  0  0  0  0  0
  -12.3695    1.4436    4.6145 H   0  0  0  0  0  0  0  0  0  0  0  0
    0.7769    1.4583   -1.6993 H   0  0  0  0  0  0  0  0  0  0  0  0
    0.3224    0.0363    0.2699 H   0  0  0  0  0  0  0  0  0  0  0  0
    1.1624    2.7743   -0.5207 H   0  0  0  0  0  0  0  0  0  0  0  0
  2 22  1  0  0  0  0
  2 24  1  0  0  0  0
  3  4  1  6  0  0  0
  3 25  1  0  0  0  0
  4  5  1  6  0  0  0
  4  9  1  0  0  0  0
  5 10  1  0  0  0  0
  5  6  1  1  0  0  0
  6  7  1  0  0  0  0
  6 15  1  0  0  0  0
  6 28  1  6  0  0  0
  7 49  1  0  0  0  0
  7  8  1  0  0  0  0
  8  3  1  0  0  0  0
  8  1  1  0  0  0  0
  9 11  2  0  0  0  0
 10  9  1  0  0  0  0
 11 29  1  0  0  0  0
 12 11  1  0  0  0  0
 12 16  1  0  0  0  0
 13 12  2  0  0  0  0
 14 10  2  0  0  0  0
 14 13  1  0  0  0  0
 15 33  1  0  0  0  0
 15  3  1  0  0  0  0
 15 32  1  0  0  0  0
 16 21  1  0  0  0  0
 17 16  2  0  0  0  0
 17 18  1  0  0  0  0
 18 19  2  0  0  0  0
 19 20  1  0  0  0  0
 19  2  1  0  0  0  0
 20 36  1  0  0  0  0
 21 37  1  0  0  0  0
 21 20  2  0  0  0  0
 22 40  1  0  0  0  0
 22 39  1  0  0  0  0
 23 42  1  0  0  0  0
 23  2  1  0  0  0  0
 24 46  1  0  0  0  0
 24 44  1  0  0  0  0
 26  4  1  0  0  0  0
 27  5  1  0  0  0  0
 30 13  1  0  0  0  0
 31 14  1  0  0  0  0
 34 17  1  0  0  0  0
 35 18  1  0  0  0  0
 38 22  1  0  0  0  0
 41 23  1  0  0  0  0
 43 23  1  0  0  0  0
 45 24  1  0  0  0  0
 47  7  1  0  0  0  0
 48  8  1  0  0  0  0
M  END
